  60
AF-NMR fragment for residue    6; version = 5.4.beta1; nbcut =  3.30
C       145.6450  183.1150   11.3440
O       246.1060  282.0390   21.6950
N        45.3640  -83.4050    0.0690
H        44.9680  -84.2710   -0.1530
C        45.5880  -82.4340   -1.0090
H        45.9280  -81.4960   -0.5920
C        46.6350  -82.9420   -2.0060
H        46.2630  -83.8260   -2.5040
C        46.9140  -81.8450   -3.0450
H        46.0270  -81.6720   -3.6380
H        47.7210  -82.1560   -3.6930
H        47.1920  -80.9310   -2.5400
C        47.9410  -83.2680   -1.2730
H        47.7430  -83.9790   -0.4840
H        48.3520  -82.3640   -0.8450
H        48.6500  -83.6910   -1.9690
C        46.9700  -85.4580    3.6490
O        46.7040  -86.4990    3.0430
N        46.3570  -84.2950    3.3990
H        46.6270  -83.4900    3.8770
C        45.3090  -84.1920    2.3720
H        45.2110  -85.1390    1.8630
C        43.9700  -83.8450    3.0250
H        44.0620  -82.9110    3.5560
H        43.2150  -83.7430    2.2660
C        43.5690  -84.9340    3.9930
C        42.9830  -86.1120    3.5130
H        42.8260  -86.2430    2.4530
C        42.6010  -87.1190    4.4070
H        42.1490  -88.0270    4.0360
C        42.8050  -86.9500    5.7810
H        42.5100  -87.7280    6.4700
C        43.3910  -85.7740    6.2620
H        43.5470  -85.6440    7.3220
C        43.7720  -84.7650    5.3680
H        44.2240  -83.8570    5.7390
H        47.7393  -85.4530    4.4212
C        44.2690  -82.2040   -1.7390
O        43.6640  -83.1450   -2.2460
N        43.8320  -80.9490   -1.8120
H        44.3620  -80.2310   -1.4090
C        42.5840  -80.6170   -2.5110
H        41.9930  -81.5140   -2.6250
C        41.7720  -79.5840   -1.7070
H        42.4520  -78.9540   -1.1500
H        41.1910  -78.9770   -2.3880
C        40.8400  -80.3070   -0.7260
H        40.1600  -80.9370   -1.2810
H        41.4190  -80.9100   -0.0420
C        40.0420  -79.2790    0.0640
H        40.7220  -78.6520    0.6190
H        39.4680  -78.6780   -0.6210
C        39.1000  -79.9940    1.0330
H        38.6220  -79.2670    1.6730
H        38.3490  -80.5330    0.4750
N        39.8800  -80.9500    1.8680
H        39.9930  -81.8460    1.3540
H        39.3730  -81.1230    2.7610
H        40.8160  -80.5490    2.0720
H        42.7966  -80.2297   -3.5074
$set
fix   17-  60
fixfc 0
$end
